ipss.plugin.3phase/testData/IEEE300/ieee300_generated_seq_1023.seq
0,  30           / PSS(R)E 30 SEQ
10000, '1 ', 0.0014, 0.1200
10001, '1 ', 0.0014, 0.1200
10002, '1 ', 0.0014, 0.1200
10003, '1 ', 0.0014, 0.1200
10004, '1 ', 0.0014, 0.1200
10005, '1 ', 0.0019, 0.3390
10006, '1 ', 0.0016, 0.1850
10007, '1 ', 0.0019, 0.2284
10008, '1 ', 0.0040, 0.1340
10009, '1 ', 0.0016, 0.1850
10010, '1 ', 0.0010, 0.1930
10011, '1 ', 0.0019, 0.2284
10012, '1 ', 0.0014, 0.1200
10013, '1 ', 0.0010, 0.1930
10014, '1 ', 0.0019, 0.2284
10015, '1 ', 0.0010, 0.1930
10016, '1 ', 0.0040, 0.1340
10017, '1 ', 0.0019, 0.2284
10018, '1 ', 0.0016, 0.1850
10019, '1 ', 0.0019, 0.3390
10020, '1 ', 0.0019, 0.2284
10021, '1 ', 0.0014, 0.1200
10022, '1 ', 0.0019, 0.2284
10023, '1 ', 0.0014, 0.1200
10024, '1 ', 0.0019, 0.2284
10025, '1 ', 0.0016, 0.1850
10026, '1 ', 0.0019, 0.2284
10027, '1 ', 0.0010, 0.1930
10028, '1 ', 0.0010, 0.1930
10029, '1 ', 0.0019, 0.3390
10030, '1 ', 0.0010, 0.1930
10031, '1 ', 0.0019, 0.3390
10032, '1 ', 0.0040, 0.2000
10033, '1 ', 0.0016, 0.1850
10034, '1 ', 0.0019, 0.3390
10035, '1 ', 0.0019, 0.2284
10036, '1 ', 0.0040, 0.2000
10037, '1 ', 0.0019, 0.3390
10038, '1 ', 0.0040, 0.2000
10039, '1 ', 0.0010, 0.1930
10040, '1 ', 0.0019, 0.2284
10041, '1 ', 0.0010, 0.1930
10042, '1 ', 0.0010, 0.1930
10043, '1 ', 0.0019, 0.2284
10044, '1 ', 0.0016, 0.1850
10045, '1 ', 0.0019, 0.3390
10046, '1 ', 0.0010, 0.1930
10047, '1 ', 0.0010, 0.1930
10048, '1 ', 0.0019, 0.2284
10049, '1 ', 0.0019, 0.3390
10050, '1 ', 0.0019, 0.3390
10051, '1 ', 0.0019, 0.2284
10052, '1 ', 0.0019, 0.3390
10053, '1 ', 0.0019, 0.3390
10054, '1 ', 0.0040, 0.1340
10055, '1 ', 0.0019, 0.3390
10056, '1 ', 0.0040, 0.1340
10057, '1 ', 0.0019, 0.2284
10058, '1 ', 0.0019, 0.3390
10059, '1 ', 0.0019, 0.3390
10060, '1 ', 0.0016, 0.1850
10061, '1 ', 0.0010, 0.1930
10062, '1 ', 0.0010, 0.1930
10063, '1 ', 0.0010, 0.1930
10064, '1 ', 0.0014, 0.1200
10065, '1 ', 0.0040, 0.1340
10066, '1 ', 0.0040, 0.1340
10067, '1 ', 0.0040, 0.1340
10068, '1 ', 0.0014, 0.1200
0 /End of Positive sequence Generator data, Begin Negative sequence Generator data
10000, '1 ', 0.0014, 0.1200
10001, '1 ', 0.0014, 0.1200
10002, '1 ', 0.0014, 0.1200
10003, '1 ', 0.0014, 0.1200
10004, '1 ', 0.0014, 0.1200
10005, '1 ', 0.0019, 0.3390
10006, '1 ', 0.0016, 0.1850
10007, '1 ', 0.0019, 0.2284
10008, '1 ', 0.0040, 0.1340
10009, '1 ', 0.0016, 0.1850
10010, '1 ', 0.0010, 0.1930
10011, '1 ', 0.0019, 0.2284
10012, '1 ', 0.0014, 0.1200
10013, '1 ', 0.0010, 0.1930
10014, '1 ', 0.0019, 0.2284
10015, '1 ', 0.0010, 0.1930
10016, '1 ', 0.0040, 0.1340
10017, '1 ', 0.0019, 0.2284
10018, '1 ', 0.0016, 0.1850
10019, '1 ', 0.0019, 0.3390
10020, '1 ', 0.0019, 0.2284
10021, '1 ', 0.0014, 0.1200
10022, '1 ', 0.0019, 0.2284
10023, '1 ', 0.0014, 0.1200
10024, '1 ', 0.0019, 0.2284
10025, '1 ', 0.0016, 0.1850
10026, '1 ', 0.0019, 0.2284
10027, '1 ', 0.0010, 0.1930
10028, '1 ', 0.0010, 0.1930
10029, '1 ', 0.0019, 0.3390
10030, '1 ', 0.0010, 0.1930
10031, '1 ', 0.0019, 0.3390
10032, '1 ', 0.0040, 0.2000
10033, '1 ', 0.0016, 0.1850
10034, '1 ', 0.0019, 0.3390
10035, '1 ', 0.0019, 0.2284
10036, '1 ', 0.0040, 0.2000
10037, '1 ', 0.0019, 0.3390
10038, '1 ', 0.0040, 0.2000
10039, '1 ', 0.0010, 0.1930
10040, '1 ', 0.0019, 0.2284
10041, '1 ', 0.0010, 0.1930
10042, '1 ', 0.0010, 0.1930
10043, '1 ', 0.0019, 0.2284
10044, '1 ', 0.0016, 0.1850
10045, '1 ', 0.0019, 0.3390
10046, '1 ', 0.0010, 0.1930
10047, '1 ', 0.0010, 0.1930
10048, '1 ', 0.0019, 0.2284
10049, '1 ', 0.0019, 0.3390
10050, '1 ', 0.0019, 0.3390
10051, '1 ', 0.0019, 0.2284
10052, '1 ', 0.0019, 0.3390
10053, '1 ', 0.0019, 0.3390
10054, '1 ', 0.0040, 0.1340
10055, '1 ', 0.0019, 0.3390
10056, '1 ', 0.0040, 0.1340
10057, '1 ', 0.0019, 0.2284
10058, '1 ', 0.0019, 0.3390
10059, '1 ', 0.0019, 0.3390
10060, '1 ', 0.0016, 0.1850
10061, '1 ', 0.0010, 0.1930
10062, '1 ', 0.0010, 0.1930
10063, '1 ', 0.0010, 0.1930
10064, '1 ', 0.0014, 0.1200
10065, '1 ', 0.0040, 0.1340
10066, '1 ', 0.0040, 0.1340
10067, '1 ', 0.0040, 0.1340
10068, '1 ', 0.0014, 0.1200
0 /End of Negative sequence Generator data, Begin Zero sequence Generator data
10000, '1 ', 0.0014, 0.1200
10001, '1 ', 0.0014, 0.1200
10002, '1 ', 0.0014, 0.1200
10003, '1 ', 0.0014, 0.1200
10004, '1 ', 0.0014, 0.1200
10005, '1 ', 0.0019, 0.3390
10006, '1 ', 0.0016, 0.1850
10007, '1 ', 0.0019, 0.2284
10008, '1 ', 0.0040, 0.1340
10009, '1 ', 0.0016, 0.1850
10010, '1 ', 0.0010, 0.1930
10011, '1 ', 0.0019, 0.2284
10012, '1 ', 0.0014, 0.1200
10013, '1 ', 0.0010, 0.1930
10014, '1 ', 0.0019, 0.2284
10015, '1 ', 0.0010, 0.1930
10016, '1 ', 0.0040, 0.1340
10017, '1 ', 0.0019, 0.2284
10018, '1 ', 0.0016, 0.1850
10019, '1 ', 0.0019, 0.3390
10020, '1 ', 0.0019, 0.2284
10021, '1 ', 0.0014, 0.1200
10022, '1 ', 0.0019, 0.2284
10023, '1 ', 0.0014, 0.1200
10024, '1 ', 0.0019, 0.2284
10025, '1 ', 0.0016, 0.1850
10026, '1 ', 0.0019, 0.2284
10027, '1 ', 0.0010, 0.1930
10028, '1 ', 0.0010, 0.1930
10029, '1 ', 0.0019, 0.3390
10030, '1 ', 0.0010, 0.1930
10031, '1 ', 0.0019, 0.3390
10032, '1 ', 0.0040, 0.2000
10033, '1 ', 0.0016, 0.1850
10034, '1 ', 0.0019, 0.3390
10035, '1 ', 0.0019, 0.2284
10036, '1 ', 0.0040, 0.2000
10037, '1 ', 0.0019, 0.3390
10038, '1 ', 0.0040, 0.2000
10039, '1 ', 0.0010, 0.1930
10040, '1 ', 0.0019, 0.2284
10041, '1 ', 0.0010, 0.1930
10042, '1 ', 0.0010, 0.1930
10043, '1 ', 0.0019, 0.2284
10044, '1 ', 0.0016, 0.1850
10045, '1 ', 0.0019, 0.3390
10046, '1 ', 0.0010, 0.1930
10047, '1 ', 0.0010, 0.1930
10048, '1 ', 0.0019, 0.2284
10049, '1 ', 0.0019, 0.3390
10050, '1 ', 0.0019, 0.3390
10051, '1 ', 0.0019, 0.2284
10052, '1 ', 0.0019, 0.3390
10053, '1 ', 0.0019, 0.3390
10054, '1 ', 0.0040, 0.1340
10055, '1 ', 0.0019, 0.3390
10056, '1 ', 0.0040, 0.1340
10057, '1 ', 0.0019, 0.2284
10058, '1 ', 0.0019, 0.3390
10059, '1 ', 0.0019, 0.3390
10060, '1 ', 0.0016, 0.1850
10061, '1 ', 0.0010, 0.1930
10062, '1 ', 0.0010, 0.1930
10063, '1 ', 0.0010, 0.1930
10064, '1 ', 0.0014, 0.1200
10065, '1 ', 0.0040, 0.1340
10066, '1 ', 0.0040, 0.1340
10067, '1 ', 0.0040, 0.1340
10068, '1 ', 0.0014, 0.1200
0 /End of Zero sequence Generator data, Begin Negative sequence Load data
0 /End of Negative sequence Load data, Begin Zero sequence Load data
0 /End of Zero sequence Load data, Begin Zero sequence Branch data
1, 5, '1 ', 0.0025, 0.0150, 0.0000,0.0, 0.0, 0.0, 0.0
2, 6, '1 ', 0.0025, 0.0225, 0.0000,0.0, 0.0, 0.0, 0.0
2, 8, '1 ', 0.0150, 0.0675, 0.0000,0.0, 0.0, 0.0, 0.0
3, 7, '1 ', 0.0000, 0.0075, 0.0000,0.0, 0.0, 0.0, 0.0
3, 19, '1 ', 0.0200, 0.1725, 0.0000,0.0, 0.0, 0.0, 0.0
3, 150, '1 ', 0.0025, 0.0175, 0.0000,0.0, 0.0, 0.0, 0.0
4, 16, '1 ', 0.0050, 0.0475, 0.0000,0.0, 0.0, 0.0, 0.0
5, 9, '1 ', 0.0150, 0.0725, 0.0000,0.0, 0.0, 0.0, 0.0
7, 12, '1 ', 0.0025, 0.0225, 0.0000,0.0, 0.0, 0.0, 0.0
7, 131, '1 ', 0.0025, 0.0175, 0.0000,0.0, 0.0, 0.0, 0.0
8, 11, '1 ', 0.0325, 0.14875, 0.0000,0.0, 0.0, 0.0, 0.0
8, 14, '1 ', 0.0325, 0.1050, 0.0000,0.0, 0.0, 0.0, 0.0
9, 11, '1 ', 0.0150, 0.0675, 0.0000,0.0, 0.0, 0.0, 0.0
11, 13, '1 ', 0.0200, 0.0850, 0.0000,0.0, 0.0, 0.0, 0.0
12, 21, '1 ', 0.0050, 0.0375, 0.0000,0.0, 0.0, 0.0, 0.0
13, 20, '1 ', 0.0150, 0.0850, 0.0000,0.0, 0.0, 0.0, 0.0
14, 15, '1 ', 0.0350, 0.1050, 0.0000,0.0, 0.0, 0.0, 0.0
15, 37, '1 ', 0.1625, 0.6200, 0.0000,0.0, 0.0, 0.0, 0.0
15, 89, '1 ', 0.2475, 0.6200, 0.0000,0.0, 0.0, 0.0, 0.0
15, 90, '1 ', 0.2400, 0.9075, 0.0000,0.0, 0.0, 0.0, 0.0
16, 42, '1 ', 0.0050, 0.0550, 0.0000,0.0, 0.0, 0.0, 0.0
19, 21, '1 ', 0.0050, 0.0450, 0.0000,0.0, 0.0, 0.0, 0.0
19, 87, '1 ', 0.0325, 0.2000, 0.0000,0.0, 0.0, 0.0, 0.0
20, 22, '1 ', 0.0400, 0.0825, 0.0000,0.0, 0.0, 0.0, 0.0
20, 27, '1 ', 0.1725, 0.4650, 0.0000,0.0, 0.0, 0.0, 0.0
21, 24, '1 ', 0.0100, 0.0850, 0.0000,0.0, 0.0, 0.0, 0.0
22, 23, '1 ', 0.1300, 0.2775, 0.0000,0.0, 0.0, 0.0, 0.0
23, 25, '1 ', 0.0475, 0.0975, 0.0000,0.0, 0.0, 0.0, 0.0
24, 319, '1 ', 0.0175, 0.1700, 0.0000,0.0, 0.0, 0.0, 0.0
25, 26, '1 ', 0.0900, 0.1775, 0.0000,0.0, 0.0, 0.0, 0.0
26, 27, '1 ', 0.1125, 0.3000, 0.0000,0.0, 0.0, 0.0, 0.0
26, 320, '1 ', 0.1075, 0.3250, 0.0000,0.0, 0.0, 0.0, 0.0
33, 38, '1 ', 0.00625, 0.0300, 0.0000,0.0, 0.0, 0.0, 0.0
33, 40, '1 ', 0.0150, 0.0725, 0.0000,0.0, 0.0, 0.0, 0.0
33, 41, '1 ', 0.0175, 0.1075, 0.0000,0.0, 0.0, 0.0, 0.0
34, 42, '1 ', 0.0025, 0.0200, 0.0000,0.0, 0.0, 0.0, 0.0
35, 72, '1 ', 0.0300, 0.1500, 0.0000,0.0, 0.0, 0.0, 0.0
35, 76, '1 ', 0.0150, 0.0350, 0.0000,0.0, 0.0, 0.0, 0.0
35, 77, '1 ', 0.0250, 0.0725, 0.0000,0.0, 0.0, 0.0, 0.0
36, 88, '1 ', 0.0100, 0.0675, 0.0000,0.0, 0.0, 0.0, 0.0
37, 38, '1 ', 0.0200, 0.1175, 0.0000,0.0, 0.0, 0.0, 0.0
37, 40, '1 ', 0.0550, 0.1600, 0.0000,0.0, 0.0, 0.0, 0.0
37, 41, '1 ', 0.0250, 0.0900, 0.0000,0.0, 0.0, 0.0, 0.0
37, 49, '1 ', 0.0425, 0.2025, 0.0000,0.0, 0.0, 0.0, 0.0
37, 89, '1 ', 0.2550, 0.6350, 0.0000,0.0, 0.0, 0.0, 0.0
37, 90, '1 ', 0.1175, 0.3175, 0.0000,0.0, 0.0, 0.0, 0.0
38, 41, '1 ', 0.0200, 0.0925, 0.0000,0.0, 0.0, 0.0, 0.0
38, 43, '1 ', 0.0800, 0.2175, 0.0000,0.0, 0.0, 0.0, 0.0
39, 42, '1 ', 0.0015, 0.0160, 0.0000,0.0, 0.0, 0.0, 0.0
40, 48, '1 ', 0.0650, 0.3850, 0.0000,0.0, 0.0, 0.0, 0.0
41, 49, '1 ', 0.1625, 0.4775, 0.0000,0.0, 0.0, 0.0, 0.0
41, 51, '1 ', 0.0775, 0.2225, 0.0000,0.0, 0.0, 0.0, 0.0
42, 46, '1 ', 0.0050, 0.0350, 0.0000,0.0, 0.0, 0.0, 0.0
43, 44, '1 ', 0.0650, 0.1800, 0.0000,0.0, 0.0, 0.0, 0.0
43, 48, '1 ', 0.2375, 0.6550, 0.0000,0.0, 0.0, 0.0, 0.0
43, 53, '1 ', 0.0325, 0.0975, 0.0000,0.0, 0.0, 0.0, 0.0
44, 47, '1 ', 0.0675, 0.2100, 0.0000,0.0, 0.0, 0.0, 0.0
44, 54, '1 ', 0.0700, 0.2100, 0.0000,0.0, 0.0, 0.0, 0.0
45, 60, '1 ', 0.0175, 0.1025, 0.0000,0.0, 0.0, 0.0, 0.0
45, 74, '1 ', 0.0225, 0.1350, 0.0000,0.0, 0.0, 0.0, 0.0
46, 81, '1 ', 0.0125, 0.1050, 0.0000,0.0, 0.0, 0.0, 0.0
47, 73, '1 ', 0.1300, 0.3625, 0.0000,0.0, 0.0, 0.0, 0.0
47, 113, '1 ', 0.1075, 0.2950, 0.0000,0.0, 0.0, 0.0, 0.0
48, 107, '1 ', 0.0625, 0.1550, 0.0000,0.0, 0.0, 0.0, 0.0
49, 51, '1 ', 0.0775, 0.2350, 0.0000,0.0, 0.0, 0.0, 0.0
51, 52, '1 ', 0.0925, 0.2725, 0.0000,0.0, 0.0, 0.0, 0.0
52, 55, '1 ', 0.0675, 0.2000, 0.0000,0.0, 0.0, 0.0, 0.0
53, 54, '1 ', 0.0625, 0.1825, 0.0000,0.0, 0.0, 0.0, 0.0
54, 55, '1 ', 0.0875, 0.2575, 0.0000,0.0, 0.0, 0.0, 0.0
55, 57, '1 ', 0.1625, 0.4225, 0.0000,0.0, 0.0, 0.0, 0.0
57, 58, '1 ', 0.1150, 0.2000, 0.0000,0.0, 0.0, 0.0, 0.0
57, 63, '1 ', 0.3975, 1.3425, 0.0000,0.0, 0.0, 0.0, 0.0
58, 59, '1 ', 0.0225, 0.0650, 0.0000,0.0, 0.0, 0.0, 0.0
59, 61, '1 ', 0.0050, 0.0325, 0.0000,0.0, 0.0, 0.0, 0.0
60, 62, '1 ', 0.0225, 0.1625, 0.0000,0.0, 0.0, 0.0, 0.0
62, 64, '1 ', 0.0400, 0.2625, 0.0000,0.0, 0.0, 0.0, 0.0
62, 144, '1 ', 0.0025, 0.0175, 0.0000,0.0, 0.0, 0.0, 0.0
63, 526, '1 ', 0.06625, 0.4300, 0.0000,0.0, 0.0, 0.0, 0.0
69, 79, '1 ', 0.1275, 0.3925, 0.0000,0.0, 0.0, 0.0, 0.0
69, 211, '1 ', 0.1275, 0.5800, 0.0000,0.0, 0.0, 0.0, 0.0
70, 71, '1 ', 0.0800, 0.2500, 0.0000,0.0, 0.0, 0.0, 0.0
70, 528, '1 ', 0.0500, 0.3085, 0.0000,0.0, 0.0, 0.0, 0.0
71, 72, '1 ', 0.0900, 0.3275, 0.0000,0.0, 0.0, 0.0, 0.0
71, 73, '1 ', 0.0850, 0.2475, 0.0000,0.0, 0.0, 0.0, 0.0
72, 77, '1 ', 0.0450, 0.2175, 0.0000,0.0, 0.0, 0.0, 0.0
72, 531, '1 ', 0.0640, 0.4825, 0.0000,0.0, 0.0, 0.0, 0.0
73, 76, '1 ', 0.0525, 0.1425, 0.0000,0.0, 0.0, 0.0, 0.0
73, 79, '1 ', 0.0450, 0.1300, 0.0000,0.0, 0.0, 0.0, 0.0
74, 88, '1 ', 0.0100, 0.0675, 0.0000,0.0, 0.0, 0.0, 0.0
74, 562, '1 ', 0.0715, 0.50325, 0.0000,0.0, 0.0, 0.0, 0.0
76, 77, '1 ', 0.0400, 0.1075, 0.0000,0.0, 0.0, 0.0, 0.0
77, 78, '1 ', 0.0025, 0.0150, 0.0000,0.0, 0.0, 0.0, 0.0
77, 80, '1 ', 0.0350, 0.1750, 0.0000,0.0, 0.0, 0.0, 0.0
77, 552, '1 ', 0.22275, 0.6690, 0.0000,0.0, 0.0, 0.0, 0.0
77, 609, '1 ', 0.1955, 0.53175, 0.0000,0.0, 0.0, 0.0, 0.0
78, 79, '1 ', 0.0150, 0.0550, 0.0000,0.0, 0.0, 0.0, 0.0
78, 84, '1 ', 0.0000, 0.0900, 0.0000,0.0, 0.0, 0.0, 0.0
79, 211, '1 ', 0.2475, 0.9375, 0.0000,0.0, 0.0, 0.0, 0.0
80, 211, '1 ', 0.0550, 0.2675, 0.0000,0.0, 0.0, 0.0, 0.0
81, 194, '1 ', 0.00875, 0.0825, 0.0000,0.0, 0.0, 0.0, 0.0
81, 195, '1 ', 0.00875, 0.0825, 0.0000,0.0, 0.0, 0.0, 0.0
85, 86, '1 ', 0.0200, 0.1600, 0.0000,0.0, 0.0, 0.0, 0.0
86, 87, '1 ', 0.0300, 0.2325, 0.0000,0.0, 0.0, 0.0, 0.0
86, 323, '1 ', 0.0150, 0.1200, 0.0000,0.0, 0.0, 0.0, 0.0
89, 91, '1 ', 0.1175, 0.2975, 0.0000,0.0, 0.0, 0.0, 0.0
90, 92, '1 ', 0.0800, 0.4350, 0.0000,0.0, 0.0, 0.0, 0.0
91, 94, '1 ', 0.2500, 0.6325, 0.0000,0.0, 0.0, 0.0, 0.0
91, 97, '1 ', 0.0550, 0.1925, 0.0000,0.0, 0.0, 0.0, 0.0
92, 103, '1 ', 0.0475, 0.3600, 0.0000,0.0, 0.0, 0.0, 0.0
92, 105, '1 ', 0.0425, 0.2300, 0.0000,0.0, 0.0, 0.0, 0.0
94, 97, '1 ', 0.6950, 1.0675, 0.0000,0.0, 0.0, 0.0, 0.0
97, 100, '1 ', 0.0550, 0.1325, 0.0000,0.0, 0.0, 0.0, 0.0
97, 102, '1 ', 0.0950, 0.2300, 0.0000,0.0, 0.0, 0.0, 0.0
97, 103, '1 ', 0.1200, 0.3050, 0.0000,0.0, 0.0, 0.0, 0.0
98, 100, '1 ', 0.0600, 0.1600, 0.0000,0.0, 0.0, 0.0, 0.0
98, 102, '1 ', 0.0850, 0.3025, 0.0000,0.0, 0.0, 0.0, 0.0
99, 107, '1 ', 0.1325, 0.3375, 0.0000,0.0, 0.0, 0.0, 0.0
99, 108, '1 ', 0.0050, 0.0100, 0.0000,0.0, 0.0, 0.0, 0.0
99, 109, '1 ', 0.1125, 0.8850, 0.0000,0.0, 0.0, 0.0, 0.0
99, 110, '1 ', 0.1250, 0.4350, 0.0000,0.0, 0.0, 0.0, 0.0
100, 102, '1 ', 0.0400, 0.0950, 0.0000,0.0, 0.0, 0.0, 0.0
102, 104, '1 ', 0.1075, 0.1600, 0.0000,0.0, 0.0, 0.0, 0.0
103, 105, '1 ', 0.0475, 0.1550, 0.0000,0.0, 0.0, 0.0, 0.0
104, 108, '1 ', 0.1900, 0.3250, 0.0000,0.0, 0.0, 0.0, 0.0
104, 322, '1 ', 0.1100, 0.3100, 0.0000,0.0, 0.0, 0.0, 0.0
105, 107, '1 ', 0.0300, 0.2200, 0.0000,0.0, 0.0, 0.0, 0.0
105, 110, '1 ', 0.3925, 1.0000, 0.0000,0.0, 0.0, 0.0, 0.0
108, 324, '1 ', 0.1850, 0.5200, 0.0000,0.0, 0.0, 0.0, 0.0
109, 110, '1 ', 0.1750, 0.4600, 0.0000,0.0, 0.0, 0.0, 0.0
109, 113, '1 ', 0.2500, 0.6850, 0.0000,0.0, 0.0, 0.0, 0.0
109, 114, '1 ', 0.2725, 0.9825, 0.0000,0.0, 0.0, 0.0, 0.0
110, 112, '1 ', 0.3550, 1.0100, 0.0000,0.0, 0.0, 0.0, 0.0
112, 114, '1 ', 0.0425, 0.1050, 0.0000,0.0, 0.0, 0.0, 0.0
115, 122, '1 ', 0.0090, 0.04975, 0.0000,0.0, 0.0, 0.0, 0.0
116, 120, '1 ', 0.0050, 0.26225, 0.0000,0.0, 0.0, 0.0, 0.0
117, 118, '1 ', 0.00025, 0.0045, 0.0000,0.0, 0.0, 0.0, 0.0
118, 119, '1 ', 0.0000, 0.06775, 0.0000,0.0, 0.0, 0.0, 0.0
118, 121, '1 ', 0.0055, 0.72875, 0.0000,0.0, 0.0, 0.0, 0.0
118, 1201, '1 ', 0.0000, 1.54075, 0.0000,0.0, 0.0, 0.0, 0.0
119, 120, '1 ', 0.0000, 0.08475, 0.0000,0.0, 0.0, 0.0, 0.0
119, 121, '1 ', 0.0000, 0.1455, 0.0000,0.0, 0.0, 0.0, 0.0
120, 1201, '1 ', 0.0000, -0.17425, 0.0000,0.0, 0.0, 0.0, 0.0
122, 123, '1 ', 0.2020, 0.5860, 0.0000,0.0, 0.0, 0.0, 0.0
122, 125, '1 ', 0.24125, 0.91725, 0.0000,0.0, 0.0, 0.0, 0.0
123, 124, '1 ', 0.0900, 0.2690, 0.0000,0.0, 0.0, 0.0, 0.0
123, 125, '1 ', 0.1190, 0.3535, 0.0000,0.0, 0.0, 0.0, 0.0
125, 126, '1 ', 0.0015, 0.04925, 0.0000,0.0, 0.0, 0.0, 0.0
127, 128, '1 ', 0.01475, 0.14425, 0.0000,0.0, 0.0, 0.0, 0.0
127, 134, '1 ', 0.01225, 0.0840, 0.0000,0.0, 0.0, 0.0, 0.0
127, 168, '1 ', 0.01475, 0.14425, 0.0000,0.0, 0.0, 0.0, 0.0
128, 130, '1 ', 0.0195, 0.19325, 0.0000,0.0, 0.0, 0.0, 0.0
128, 133, '1 ', 0.0065, 0.04825, 0.0000,0.0, 0.0, 0.0, 0.0
129, 130, '1 ', 0.0190, 0.1880, 0.0000,0.0, 0.0, 0.0, 0.0
129, 133, '1 ', 0.00525, 0.0465, 0.0000,0.0, 0.0, 0.0, 0.0
130, 132, '1 ', 0.0040, 0.0410, 0.0000,0.0, 0.0, 0.0, 0.0
130, 151, '1 ', 0.00425, 0.04125, 0.0000,0.0, 0.0, 0.0, 0.0
130, 167, '1 ', 0.01975, 0.19825, 0.0000,0.0, 0.0, 0.0, 0.0
130, 168, '1 ', 0.0195, 0.1960, 0.0000,0.0, 0.0, 0.0, 0.0
133, 137, '1 ', 0.00425, 0.02925, 0.0000,0.0, 0.0, 0.0, 0.0
133, 168, '1 ', 0.0065, 0.04825, 0.0000,0.0, 0.0, 0.0, 0.0
133, 169, '1 ', 0.00525, 0.0465, 0.0000,0.0, 0.0, 0.0, 0.0
134, 135, '1 ', 0.01075, 0.07325, 0.0000,0.0, 0.0, 0.0, 0.0
134, 184, '1 ', 0.00975, 0.09525, 0.0000,0.0, 0.0, 0.0, 0.0
135, 136, '1 ', 0.02275, 0.15575, 0.0000,0.0, 0.0, 0.0, 0.0
136, 137, '1 ', 0.03125, 0.2225, 0.0000,0.0, 0.0, 0.0, 0.0
136, 152, '1 ', 0.0140, 0.0975, 0.0000,0.0, 0.0, 0.0, 0.0
137, 140, '1 ', 0.00375, 0.0285, 0.0000,0.0, 0.0, 0.0, 0.0
137, 181, '1 ', 0.00125, 0.0085, 0.0000,0.0, 0.0, 0.0, 0.0
137, 186, '1 ', 0.00175, 0.03775, 0.0000,0.0, 0.0, 0.0, 0.0
137, 188, '1 ', 0.00125, 0.0085, 0.0000,0.0, 0.0, 0.0, 0.0
138, 181, '1 ', 0.0010, 0.0505, 0.0000,0.0, 0.0, 0.0, 0.0
138, 188, '1 ', 0.0010, 0.0505, 0.0000,0.0, 0.0, 0.0, 0.0
139, 172, '1 ', 0.1405, 0.5620, 0.0000,0.0, 0.0, 0.0, 0.0
140, 141, '1 ', 0.0300, 0.2090, 0.0000,0.0, 0.0, 0.0, 0.0
140, 142, '1 ', 0.0380, 0.2830, 0.0000,0.0, 0.0, 0.0, 0.0
140, 145, '1 ', 0.1170, 0.84225, 0.0000,0.0, 0.0, 0.0, 0.0
140, 146, '1 ', 0.1075, 0.75775, 0.0000,0.0, 0.0, 0.0, 0.0
140, 147, '1 ', 0.12225, 0.8730, 0.0000,0.0, 0.0, 0.0, 0.0
140, 182, '1 ', 0.00325, 0.02225, 0.0000,0.0, 0.0, 0.0, 0.0
141, 146, '1 ', 0.07275, 0.56675, 0.0000,0.0, 0.0, 0.0, 0.0
142, 143, '1 ', 0.0150, 0.1425, 0.0000,0.0, 0.0, 0.0, 0.0
143, 145, '1 ', 0.01875, 0.19325, 0.0000,0.0, 0.0, 0.0, 0.0
143, 149, '1 ', 0.03175, 0.22725, 0.0000,0.0, 0.0, 0.0, 0.0
145, 146, '1 ', 0.02125, 0.1470, 0.0000,0.0, 0.0, 0.0, 0.0
145, 149, '1 ', 0.0545, 0.37775, 0.0000,0.0, 0.0, 0.0, 0.0
146, 147, '1 ', 0.01825, 0.1260, 0.0000,0.0, 0.0, 0.0, 0.0
148, 178, '1 ', 0.13075, 0.3815, 0.0000,0.0, 0.0, 0.0, 0.0
148, 179, '1 ', 0.34275, 0.97975, 0.0000,0.0, 0.0, 0.0, 0.0
152, 153, '1 ', 0.03425, 0.23925, 0.0000,0.0, 0.0, 0.0, 0.0
153, 161, '1 ', 0.01375, 0.0720, 0.0000,0.0, 0.0, 0.0, 0.0
154, 156, '1 ', 0.4365, 0.79025, 0.0000,0.0, 0.0, 0.0, 0.0
154, 183, '1 ', 0.2010, 0.7635, 0.0000,0.0, 0.0, 0.0, 0.0
155, 161, '1 ', 0.0275, 0.1420, 0.0000,0.0, 0.0, 0.0, 0.0
157, 159, '1 ', 0.0020, 0.0245, 0.0000,0.0, 0.0, 0.0, 0.0
158, 159, '1 ', 0.00725, 0.07125, 0.0000,0.0, 0.0, 0.0, 0.0
158, 160, '1 ', 0.0165, 0.1120, 0.0000,0.0, 0.0, 0.0, 0.0
162, 164, '1 ', 0.0060, 0.0815, 0.0000,0.0, 0.0, 0.0, 0.0
162, 165, '1 ', 0.0045, 0.06125, 0.0000,0.0, 0.0, 0.0, 0.0
163, 164, '1 ', 0.0110, 0.1285, 0.0000,0.0, 0.0, 0.0, 0.0
165, 166, '1 ', 0.0005, 0.03075, 0.0000,0.0, 0.0, 0.0, 0.0
167, 169, '1 ', 0.0045, 0.0445, 0.0000,0.0, 0.0, 0.0, 0.0
172, 173, '1 ', 0.16725, 1.21075, 0.0000,0.0, 0.0, 0.0, 0.0
172, 174, '1 ', 0.1395, 0.5525, 0.0000,0.0, 0.0, 0.0, 0.0
173, 174, '1 ', 0.20175, 0.83275, 0.0000,0.0, 0.0, 0.0, 0.0
173, 175, '1 ', 0.18475, 0.76775, 0.0000,0.0, 0.0, 0.0, 0.0
173, 176, '1 ', 0.44975, 1.25425, 0.0000,0.0, 0.0, 0.0, 0.0
175, 176, '1 ', 0.2260, 0.9065, 0.0000,0.0, 0.0, 0.0, 0.0
175, 179, '1 ', 0.1925, 0.7730, 0.0000,0.0, 0.0, 0.0, 0.0
176, 177, '1 ', 0.06275, 0.20725, 0.0000,0.0, 0.0, 0.0, 0.0
177, 178, '1 ', 0.0555, 0.21175, 0.0000,0.0, 0.0, 0.0, 0.0
178, 179, '1 ', 0.1245, 0.46375, 0.0000,0.0, 0.0, 0.0, 0.0
178, 180, '1 ', 0.01525, 0.0725, 0.0000,0.0, 0.0, 0.0, 0.0
181, 187, '1 ', 0.0010, 0.02075, 0.0000,0.0, 0.0, 0.0, 0.0
184, 185, '1 ', 0.00625, 0.06125, 0.0000,0.0, 0.0, 0.0, 0.0
186, 188, '1 ', 0.00175, 0.0215, 0.0000,0.0, 0.0, 0.0, 0.0
187, 188, '1 ', 0.00175, 0.0215, 0.0000,0.0, 0.0, 0.0, 0.0
189, 208, '1 ', 0.0825, 0.2375, 0.0000,0.0, 0.0, 0.0, 0.0
189, 209, '1 ', 0.1150, 0.1725, 0.0000,0.0, 0.0, 0.0, 0.0
190, 231, '1 ', 0.0010, 0.0055, 0.0000,0.0, 0.0, 0.0, 0.0
191, 192, '1 ', 0.0075, 0.1200, 0.0000,0.0, 0.0, 0.0, 0.0
191, 225, '1 ', 0.0025, 0.1525, 0.0000,0.0, 0.0, 0.0, 0.0
192, 225, '1 ', 0.0050, 0.0225, 0.0000,0.0, 0.0, 0.0, 0.0
193, 205, '1 ', 0.1125, 0.1575, 0.0000,0.0, 0.0, 0.0, 0.0
193, 208, '1 ', 0.1200, 0.3175, 0.0000,0.0, 0.0, 0.0, 0.0
194, 219, '1 ', 0.00775, 0.0715, 0.0000,0.0, 0.0, 0.0, 0.0
194, 664, '1 ', 0.0060, 0.08875, 0.0000,0.0, 0.0, 0.0, 0.0
195, 219, '1 ', 0.00775, 0.0715, 0.0000,0.0, 0.0, 0.0, 0.0
196, 197, '1 ', 0.0350, 0.1000, 0.0000,0.0, 0.0, 0.0, 0.0
196, 210, '1 ', 0.0750, 0.2025, 0.0000,0.0, 0.0, 0.0, 0.0
197, 198, '1 ', 0.0250, 0.1500, 0.0000,0.0, 0.0, 0.0, 0.0
197, 211, '1 ', 0.0375, 0.1000, 0.0000,0.0, 0.0, 0.0, 0.0
198, 203, '1 ', 0.0225, 0.1150, 0.0000,0.0, 0.0, 0.0, 0.0
198, 210, '1 ', 0.0500, 0.1825, 0.0000,0.0, 0.0, 0.0, 0.0
198, 211, '1 ', 0.0850, 0.2725, 0.0000,0.0, 0.0, 0.0, 0.0
199, 200, '1 ', 0.1900, 0.3375, 0.0000,0.0, 0.0, 0.0, 0.0
199, 210, '1 ', 0.1000, 0.2550, 0.0000,0.0, 0.0, 0.0, 0.0
200, 210, '1 ', 0.2025, 0.3200, 0.0000,0.0, 0.0, 0.0, 0.0
201, 204, '1 ', 0.3100, 0.4575, 0.0000,0.0, 0.0, 0.0, 0.0
203, 211, '1 ', 0.0250, 0.1475, 0.0000,0.0, 0.0, 0.0, 0.0
204, 205, '1 ', 0.1150, 0.1700, 0.0000,0.0, 0.0, 0.0, 0.0
205, 206, '1 ', 0.7550, 1.1150, 0.0000,0.0, 0.0, 0.0, 0.0
206, 207, '1 ', 0.1825, 0.2325, 0.0000,0.0, 0.0, 0.0, 0.0
206, 208, '1 ', 0.6000, 1.0525, 0.0000,0.0, 0.0, 0.0, 0.0
212, 215, '1 ', 0.03475, 0.1945, 0.0000,0.0, 0.0, 0.0, 0.0
214, 215, '1 ', 0.00425, 0.04625, 0.0000,0.0, 0.0, 0.0, 0.0
214, 242, '1 ', 0.00375, 0.0270, 0.0000,0.0, 0.0, 0.0, 0.0
215, 216, '1 ', 0.01125, 0.06225, 0.0000,0.0, 0.0, 0.0, 0.0
216, 217, '1 ', 0.0100, 0.12425, 0.0000,0.0, 0.0, 0.0, 0.0
217, 218, '1 ', 0.0000, 0.1140, 0.0000,0.0, 0.0, 0.0, 0.0
217, 220, '1 ', 0.00675, 0.09875, 0.0000,0.0, 0.0, 0.0, 0.0
218, 220, '1 ', 0.00925, 0.1210, 0.0000,0.0, 0.0, 0.0, 0.0
219, 237, '1 ', 0.00075, 0.0045, 0.0000,0.0, 0.0, 0.0, 0.0
220, 221, '1 ', 0.0025, 0.07375, 0.0000,0.0, 0.0, 0.0, 0.0
220, 238, '1 ', 0.0040, 0.0115, 0.0000,0.0, 0.0, 0.0, 0.0
221, 223, '1 ', 0.00075, 0.00325, 0.0000,0.0, 0.0, 0.0, 0.0
224, 225, '1 ', 0.0250, 0.1600, 0.0000,0.0, 0.0, 0.0, 0.0
224, 226, '1 ', 0.00475, 0.02025, 0.0000,0.0, 0.0, 0.0, 0.0
228, 229, '1 ', 0.00475, 0.02175, 0.0000,0.0, 0.0, 0.0, 0.0
228, 234, '1 ', 0.00325, 0.0720, 0.0000,0.0, 0.0, 0.0, 0.0
231, 237, '1 ', 0.00025, 0.0015, 0.0000,0.0, 0.0, 0.0, 0.0
234, 235, '1 ', 0.0005, 0.06475, 0.0000,0.0, 0.0, 0.0, 0.0
235, 238, '1 ', 0.0005, 0.0015, 0.0000,0.0, 0.0, 0.0, 0.0
240, 281, '1 ', 0.00075, 0.01075, 0.0000,0.0, 0.0, 0.0, 0.0
243, 244, '1 ', 0.03175, 0.08875, 0.0000,0.0, 0.0, 0.0, 0.0
243, 245, '1 ', 0.0815, 0.4510, 0.0000,0.0, 0.0, 0.0, 0.0
244, 246, '1 ', 0.04875, 0.13775, 0.0000,0.0, 0.0, 0.0, 0.0
245, 246, '1 ', 0.03925, 0.1830, 0.0000,0.0, 0.0, 0.0, 0.0
245, 247, '1 ', 0.0900, 0.52975, 0.0000,0.0, 0.0, 0.0, 0.0
246, 247, '1 ', 0.0670, 0.32125, 0.0000,0.0, 0.0, 0.0, 0.0
247, 248, '1 ', 0.1070, 0.30375, 0.0000,0.0, 0.0, 0.0, 0.0
248, 249, '1 ', 0.08775, 0.2510, 0.0000,0.0, 0.0, 0.0, 0.0
249, 250, '1 ', 0.1540, 0.46425, 0.0000,0.0, 0.0, 0.0, 0.0
9001, 9005, '1 ', 0.0020, 0.0087, 0.0000,0.0, 0.0, 0.0, 0.0
9002, 9012, '1 ', 0.19055, 1.08215, 0.0000,0.0, 0.0, 0.0, 0.0
9002, 9012, '2 ', 0.19055, 1.08215, 0.0000,0.0, 0.0, 0.0, 0.0
9002, 9021, '1 ', 0.13425, 0.17565, 0.0000,0.0, 0.0, 0.0, 0.0
9003, 9006, '1 ', 0.27795, 1.2333, 0.0000,0.0, 0.0, 0.0, 0.0
9003, 9006, '2 ', 0.27795, 1.2333, 0.0000,0.0, 0.0, 0.0, 0.0
9003, 9007, '1 ', 0.1395, 0.61665, 0.0000,0.0, 0.0, 0.0, 0.0
9003, 9044, '1 ', 0.18445, 0.1588, 0.0000,0.0, 0.0, 0.0, 0.0
9004, 9044, '1 ', 0.0958, 0.07235, 0.0000,0.0, 0.0, 0.0, 0.0
9006, 9007, '1 ', 0.13895, 0.61665, 0.0000,0.0, 0.0, 0.0, 0.0
9012, 9121, '1 ', 0.5888, 2.4759, 0.0000,0.0, 0.0, 0.0, 0.0
9021, 9023, '1 ', 2.7670, 2.38195, 0.0000,0.0, 0.0, 0.0, 0.0
0 /End of Zero sequence Branch data, Begin Zero sequence Mutual data
0 /End of Zero sequence Mutual data, Begin Zero sequence Transformer data
3, 1, 0, '1 ', 1, 0.0000, 0.0000, 0.0000, 0.0520, 0.0000, 0.0000
7001, 1, 0, '1 ', 1, 0.0000, 0.0000, 0.0000, 0.01953, 0.0000, 0.0000
3, 2, 0, '1 ', 1, 0.0000, 0.0000, 0.0000, 0.0520, 0.0000, 0.0000
7002, 2, 0, '1 ', 1, 0.0000, 0.0000, 0.0010, 0.0146, 0.0000, 0.0000
3, 4, 0, '1 ', 1, 0.0000, 0.0000, 0.0000, 0.0050, 0.0000, 0.0000
7003, 3, 0, '1 ', 1, 0.0000, 0.0000, 0.0000, 0.01054, 0.0000, 0.0000
7, 5, 0, '1 ', 1, 0.0000, 0.0000, 0.0000, 0.0390, 0.0000, 0.0000
7, 6, 0, '1 ', 1, 0.0000, 0.0000, 0.0000, 0.0390, 0.0000, 0.0000
10000, 8, 0, '1 ', 3, 0.0, 0.0, 0.0000, 0.00011, 0.0000, 0.0000
10, 11, 0, '1 ', 1, 0.0000, 0.0000, 0.0000, 0.0890, 0.0000, 0.0000
12, 10, 0, '1 ', 1, 0.0000, 0.0000, 0.0000, 0.0530, 0.0000, 0.0000
10001, 10, 0, '1 ', 3, 0.0, 0.0, 0.0000, 0.00011, 0.0000, 0.0000
7011, 11, 0, '1 ', 1, 0.0000, 0.0000, 0.0000, 0.01923, 0.0000, 0.0000
7012, 12, 0, '1 ', 1, 0.0000, 0.0000, 0.0000, 0.0312, 0.0000, 0.0000
16, 15, 0, '1 ', 1, 0.0000, 0.0000, 0.0010, 0.0380, 0.0000, 0.0000
15, 17, 0, '1 ', 1, 0.0000, 0.0000, 0.0194, 0.0311, 0.0000, 0.0000
7017, 17, 0, '1 ', 1, 0.0000, 0.0000, 0.0000, 0.01654, 0.0000, 0.0000
21, 20, 0, '1 ', 1, 0.0000, 0.0000, 0.0000, 0.0140, 0.0000, 0.0000
10002, 20, 0, '1 ', 3, 0.0, 0.0, 0.0000, 0.00011, 0.0000, 0.0000
24, 23, 0, '1 ', 1, 0.0000, 0.0000, 0.0000, 0.0640, 0.0000, 0.0000
7023, 23, 0, '1 ', 1, 0.0000, 0.0000, 0.0000, 0.0230, 0.0000, 0.0000
7024, 24, 0, '1 ', 1, 0.0000, 0.0000, 0.0000, 0.0289, 0.0000, 0.0000
36, 35, 0, '1 ', 1, 0.0000, 0.0000, 0.0000, 0.0470, 0.0000, 0.0000
37, 9001, 0, '1 ', 1, 0.0000, 0.0000, 0.00006, 0.00046, 0.0000, 0.0000
7039, 39, 0, '1 ', 1, 0.0000, 0.0000, 0.0000, 0.03159, 0.0000, 0.0000
45, 44, 0, '1 ', 1, 0.0000, 0.0000, 0.0000, 0.0200, 0.0000, 0.0000
7044, 44, 0, '1 ', 1, 0.0000, 0.0000, 0.0000, 0.18181, 0.0000, 0.0000
45, 46, 0, '1 ', 1, 0.0000, 0.0000, 0.0000, 0.0210, 0.0000, 0.0000
7049, 49, 0, '1 ', 1, 0.0000, 0.0000, 0.0000, 0.0124, 0.0000, 0.0000
7055, 55, 0, '1 ', 1, 0.0000, 0.0000, 0.0000, 0.19607, 0.0000, 0.0000
7057, 57, 0, '1 ', 1, 0.0000, 0.0000, 0.0000, 0.05347, 0.0000, 0.0000
62, 61, 0, '1 ', 1, 0.0000, 0.0000, 0.0000, 0.0590, 0.0000, 0.0000
7061, 61, 0, '1 ', 1, 0.0000, 0.0000, 0.0000, 0.0238, 0.0000, 0.0000
7062, 62, 0, '1 ', 1, 0.0000, 0.0000, 0.0000, 0.03214, 0.0000, 0.0000
63, 64, 0, '1 ', 1, 0.0000, 0.0000, 0.0000, 0.0380, 0.0000, 0.0000
10003, 63, 0, '1 ', 3, 0.0, 0.0, 0.0000, 0.00011, 0.0000, 0.0000
201, 69, 0, '2 ', 2, 0.0000, 0.0000, 0.0000, 0.0980, 0.0, 0.0
7071, 71, 0, '1 ', 1, 0.0000, 0.0000, 0.0000, 0.06896, 0.0000, 0.0000
73, 74, 0, '1 ', 1, 0.0000, 0.0000, 0.0000, 0.0244, 0.0000, 0.0000
10004, 76, 0, '1 ', 3, 0.0, 0.0, 0.0000, 0.00011, 0.0000, 0.0000
81, 88, 0, '1 ', 1, 0.0000, 0.0000, 0.0000, 0.0200, 0.0000, 0.0000
10005, 84, 0, '1 ', 3, 0.0, 0.0, 0.0000, 0.00011, 0.0000, 0.0000
85, 99, 0, '1 ', 1, 0.0000, 0.0000, 0.0000, 0.0480, 0.0000, 0.0000
86, 102, 0, '1 ', 1, 0.0000, 0.0000, 0.0000, 0.0480, 0.0000, 0.0000
87, 94, 0, '1 ', 1, 0.0000, 0.0000, 0.0000, 0.0460, 0.0000, 0.0000
10006, 91, 0, '1 ', 3, 0.0, 0.0, 0.0000, 0.00011, 0.0000, 0.0000
10007, 92, 0, '1 ', 3, 0.0, 0.0, 0.0000, 0.00011, 0.0000, 0.0000
10008, 98, 0, '1 ', 3, 0.0, 0.0, 0.0000, 0.00011, 0.0000, 0.0000
10009, 108, 0, '1 ', 3, 0.0, 0.0, 0.0000, 0.00011, 0.0000, 0.0000
114, 207, 0, '1 ', 3, 0.0, 0.0, 0.0000, 0.1490, 0.0000, 0.0000
121, 115, 0, '1 ', 1, 0.0000, 0.0000, 0.0000, 0.0280, 0.0000, 0.0000
116, 124, 0, '1 ', 1, 0.0000, 0.0000, 0.0052, 0.0174, 0.0000, 0.0000
159, 117, 0, '1 ', 1, 0.0000, 0.0000, 0.0000, 0.0160, 0.0000, 0.0000
10010, 119, 0, '1 ', 3, 0.0, 0.0, 0.0000, 0.00011, 0.0000, 0.0000
122, 157, 0, '1 ', 1, 0.0000, 0.0000, 0.0005, 0.0195, 0.0000, 0.0000
160, 124, 0, '1 ', 1, 0.0000, 0.0000, 0.0012, 0.0396, 0.0000, 0.0000
10011, 124, 0, '1 ', 3, 0.0, 0.0, 0.0000, 0.00011, 0.0000, 0.0000
10012, 125, 0, '1 ', 3, 0.0, 0.0, 0.0000, 0.00011, 0.0000, 0.0000
130, 131, 0, '1 ', 1, 0.0000, 0.0000, 0.0000, 0.0180, 0.0000, 0.0000
130, 150, 0, '1 ', 1, 0.0000, 0.0000, 0.0000, 0.0140, 0.0000, 0.0000
7130, 130, 0, '1 ', 1, 0.0000, 0.0000, 0.0000, 0.0193, 0.0000, 0.0000
132, 170, 0, '1 ', 1, 0.0000, 0.0000, 0.0010, 0.0402, 0.0000, 0.0000
163, 137, 0, '1 ', 1, 0.0000, 0.0000, 0.0013, 0.0384, 0.0000, 0.0000
10013, 138, 0, '1 ', 3, 0.0, 0.0, 0.0000, 0.00011, 0.0000, 0.0000
182, 139, 0, '1 ', 1, 0.0000, 0.0000, 0.0003, 0.0131, 0.0000, 0.0000
7139, 139, 0, '1 ', 1, 0.0000, 0.0000, 0.0000, 0.0167, 0.0000, 0.0000
141, 174, 0, '1 ', 1, 0.0000, 0.0000, 0.0024, 0.0603, 0.0000, 0.0000
10014, 141, 0, '1 ', 3, 0.0, 0.0, 0.0000, 0.00011, 0.0000, 0.0000
142, 175, 0, '1 ', 1, 0.0000, 0.0000, 0.0024, 0.0498, 0.0000, 0.0000
143, 144, 0, '1 ', 1, 0.0000, 0.0000, 0.0000, 0.0833, 0.0000, 0.0000
143, 148, 0, '1 ', 1, 0.0000, 0.0000, 0.0013, 0.0371, 0.0000, 0.0000
10015, 143, 0, '1 ', 3, 0.0, 0.0, 0.0000, 0.00011, 0.0000, 0.0000
145, 180, 0, '1 ', 1, 0.0000, 0.0000, 0.0005, 0.0182, 0.0000, 0.0000
10016, 146, 0, '1 ', 3, 0.0, 0.0, 0.0000, 0.00011, 0.0000, 0.0000
10017, 147, 0, '1 ', 3, 0.0, 0.0, 0.0000, 0.00011, 0.0000, 0.0000
10018, 149, 0, '1 ', 3, 0.0, 0.0, 0.0000, 0.00011, 0.0000, 0.0000
151, 170, 0, '1 ', 1, 0.0000, 0.0000, 0.0010, 0.0392, 0.0000, 0.0000
10019, 152, 0, '1 ', 3, 0.0, 0.0, 0.0000, 0.00011, 0.0000, 0.0000
153, 183, 0, '1 ', 1, 0.0000, 0.0000, 0.0027, 0.0639, 0.0000, 0.0000
10020, 153, 0, '1 ', 3, 0.0, 0.0, 0.0000, 0.00011, 0.0000, 0.0000
155, 156, 0, '1 ', 1, 0.0000, 0.0000, 0.0008, 0.0256, 0.0000, 0.0000
164, 155, 0, '1 ', 1, 0.0000, 0.0000, 0.0009, 0.0231, 0.0000, 0.0000
10021, 156, 0, '1 ', 3, 0.0, 0.0, 0.0000, 0.00011, 0.0000, 0.0000
7166, 166, 0, '1 ', 1, 0.0000, 0.0000, 0.0000, 0.0154, 0.0000, 0.0000
10022, 170, 0, '1 ', 3, 0.0, 0.0, 0.0000, 0.00011, 0.0000, 0.0000
10023, 171, 0, '1 ', 3, 0.0, 0.0, 0.0000, 0.00011, 0.0000, 0.0000
10024, 176, 0, '1 ', 3, 0.0, 0.0, 0.0000, 0.00011, 0.0000, 0.0000
10025, 177, 0, '1 ', 3, 0.0, 0.0, 0.0000, 0.00011, 0.0000, 0.0000
10026, 185, 0, '1 ', 3, 0.0, 0.0, 0.0000, 0.00011, 0.0000, 0.0000
10027, 186, 0, '1 ', 3, 0.0, 0.0, 0.0000, 0.00011, 0.0000, 0.0000
10028, 187, 0, '1 ', 3, 0.0, 0.0, 0.0000, 0.00011, 0.0000, 0.0000
189, 210, 0, '1 ', 2, 0.0000, 0.0000, 0.0000, 0.2520, 0.0, 0.0
10029, 190, 0, '1 ', 3, 0.0, 0.0, 0.0000, 0.00011, 0.0000, 0.0000
10030, 191, 0, '1 ', 3, 0.0, 0.0, 0.0000, 0.00011, 0.0000, 0.0000
193, 196, 0, '1 ', 1, 0.0000, 0.0000, 0.0000, 0.2370, 0.0000, 0.0000
195, 212, 0, '1 ', 1, 0.0000, 0.0000, 0.0008, 0.0366, 0.0000, 0.0000
209, 198, 0, '1 ', 2, 0.0000, 0.0000, 0.0260, 0.2110, 0.0, 0.0
10031, 198, 0, '1 ', 3, 0.0, 0.0, 0.0000, 0.00011, 0.0000, 0.0000
200, 248, 0, '1 ', 3, 0.0, 0.0, 0.0000, 0.2200, 0.0000, 0.0000
202, 211, 0, '1 ', 2, 0.0000, 0.0000, 0.0000, 0.1280, 0.0, 0.0
204, 2040, 0, '1 ', 2, 0.0000, 0.0000, 0.0200, 0.2040, 0.0, 0.0
211, 212, 0, '1 ', 1, 0.0000, 0.0000, 0.0030, 0.0122, 0.0000, 0.0000
213, 214, 0, '1 ', 1, 0.0000, 0.0000, 0.0025, 0.0380, 0.0000, 0.0000
10032, 213, 0, '1 ', 3, 0.0, 0.0, 0.0000, 0.00011, 0.0000, 0.0000
218, 219, 0, '1 ', 1, 0.0000, 0.0000, 0.0010, 0.0354, 0.0000, 0.0000
10033, 220, 0, '1 ', 3, 0.0, 0.0, 0.0000, 0.00011, 0.0000, 0.0000
10034, 221, 0, '1 ', 3, 0.0, 0.0, 0.0000, 0.00011, 0.0000, 0.0000
222, 237, 0, '1 ', 1, 0.0000, 0.0000, 0.0014, 0.0514, 0.0000, 0.0000
10035, 222, 0, '1 ', 3, 0.0, 0.0, 0.0000, 0.00011, 0.0000, 0.0000
223, 224, 0, '1 ', 1, 0.0000, 0.0000, 0.0012, 0.0195, 0.0000, 0.0000
227, 231, 0, '1 ', 1, 0.0000, 0.0000, 0.0009, 0.0472, 0.0000, 0.0000
10036, 227, 0, '1 ', 3, 0.0, 0.0, 0.0000, 0.00011, 0.0000, 0.0000
229, 230, 0, '1 ', 1, 0.0000, 0.0000, 0.0010, 0.0332, 0.0000, 0.0000
10037, 230, 0, '1 ', 3, 0.0, 0.0, 0.0000, 0.00011, 0.0000, 0.0000
10038, 233, 0, '1 ', 3, 0.0, 0.0, 0.0000, 0.00011, 0.0000, 0.0000
234, 236, 0, '1 ', 1, 0.0000, 0.0000, 0.0005, 0.0160, 0.0000, 0.0000
10039, 236, 0, '1 ', 3, 0.0, 0.0, 0.0000, 0.00011, 0.0000, 0.0000
241, 237, 0, '1 ', 1, 0.0000, 0.0000, 0.0005, 0.0154, 0.0000, 0.0000
238, 239, 0, '1 ', 1, 0.0000, 0.0000, 0.0005, 0.0160, 0.0000, 0.0000
10040, 238, 0, '1 ', 3, 0.0, 0.0, 0.0000, 0.00011, 0.0000, 0.0000
10041, 239, 0, '1 ', 3, 0.0, 0.0, 0.0000, 0.00011, 0.0000, 0.0000
10042, 241, 0, '1 ', 3, 0.0, 0.0, 0.0000, 0.00011, 0.0000, 0.0000
10043, 242, 0, '1 ', 3, 0.0, 0.0, 0.0000, 0.00011, 0.0000, 0.0000
10044, 243, 0, '1 ', 3, 0.0, 0.0, 0.0000, 0.00011, 0.0000, 0.0000
10045, 7001, 0, '1 ', 3, 0.0, 0.0, 0.0000, 0.00011, 0.0000, 0.0000
10046, 7002, 0, '1 ', 3, 0.0, 0.0, 0.0000, 0.00011, 0.0000, 0.0000
10047, 7003, 0, '1 ', 3, 0.0, 0.0, 0.0000, 0.00011, 0.0000, 0.0000
10048, 7011, 0, '1 ', 3, 0.0, 0.0, 0.0000, 0.00011, 0.0000, 0.0000
10049, 7012, 0, '1 ', 3, 0.0, 0.0, 0.0000, 0.00011, 0.0000, 0.0000
10050, 7017, 0, '1 ', 3, 0.0, 0.0, 0.0000, 0.00011, 0.0000, 0.0000
10051, 7023, 0, '1 ', 3, 0.0, 0.0, 0.0000, 0.00011, 0.0000, 0.0000
10052, 7024, 0, '1 ', 3, 0.0, 0.0, 0.0000, 0.00011, 0.0000, 0.0000
10053, 7039, 0, '1 ', 3, 0.0, 0.0, 0.0000, 0.00011, 0.0000, 0.0000
10054, 7044, 0, '1 ', 3, 0.0, 0.0, 0.0000, 0.00011, 0.0000, 0.0000
10055, 7049, 0, '1 ', 3, 0.0, 0.0, 0.0000, 0.00011, 0.0000, 0.0000
10056, 7055, 0, '1 ', 3, 0.0, 0.0, 0.0000, 0.00011, 0.0000, 0.0000
10057, 7057, 0, '1 ', 3, 0.0, 0.0, 0.0000, 0.00011, 0.0000, 0.0000
10058, 7061, 0, '1 ', 3, 0.0, 0.0, 0.0000, 0.00011, 0.0000, 0.0000
10059, 7062, 0, '1 ', 3, 0.0, 0.0, 0.0000, 0.00011, 0.0000, 0.0000
10060, 7071, 0, '1 ', 3, 0.0, 0.0, 0.0000, 0.00011, 0.0000, 0.0000
10061, 7130, 0, '1 ', 3, 0.0, 0.0, 0.0000, 0.00011, 0.0000, 0.0000
10062, 7139, 0, '1 ', 3, 0.0, 0.0, 0.0000, 0.00011, 0.0000, 0.0000
10063, 7166, 0, '1 ', 3, 0.0, 0.0, 0.0000, 0.00011, 0.0000, 0.0000
9001, 9006, 0, '1 ', 1, 0.0000, 0.0000, 0.02439, 0.43682, 0.0000, 0.0000
9001, 9012, 0, '1 ', 1, 0.0000, 0.0000, 0.03624, 0.64898, 0.0000, 0.0000
9002, 9024, 0, '1 ', 3, 0.0, 0.0, 0.50748, 3.2202, 0.0000, 0.0000
10064, 9002, 0, '1 ', 3, 0.0, 0.0, 0.0000, 0.00011, 0.0000, 0.0000
9003, 9031, 0, '1 ', 3, 0.0, 0.0, 0.73633, 4.6724, 0.0000, 0.0000
9003, 9032, 0, '1 ', 3, 0.0, 0.0, 0.76978, 4.8846, 0.0000, 0.0000
9003, 9033, 0, '1 ', 3, 0.0, 0.0, 0.75732, 4.8056, 0.0000, 0.0000
9003, 9034, 0, '1 ', 3, 0.0, 0.0, 0.13006, 1.3912, 0.0000, 0.0000
9003, 9035, 0, '1 ', 3, 0.0, 0.0, 0.54484, 3.4572, 0.0000, 0.0000
9003, 9036, 0, '1 ', 3, 0.0, 0.0, 0.15426, 1.6729, 0.0000, 0.0000
9003, 9037, 0, '1 ', 3, 0.0, 0.0, 0.3849, 2.5712, 0.0000, 0.0000
9003, 9038, 0, '1 ', 3, 0.0, 0.0, 0.4412, 2.9668, 0.0000, 0.0000
9004, 9041, 0, '1 ', 3, 0.0, 0.0, 0.36614, 2.4560, 0.0000, 0.0000
9004, 9042, 0, '1 ', 3, 0.0, 0.0, 1.0593, 5.4536, 0.0000, 0.0000
9004, 9043, 0, '1 ', 3, 0.0, 0.0, 0.1567, 1.6994, 0.0000, 0.0000
9005, 9051, 0, '1 ', 1, 0.0000, 0.0000, 0.01578, 0.37486, 0.0000, 0.0000
9005, 9052, 0, '1 ', 3, 0.0, 0.0, 0.01578, 0.37486, 0.0000, 0.0000
9005, 9053, 0, '1 ', 1, 0.0000, 0.0000, 0.01602, 0.38046, 0.0000, 0.0000
9005, 9054, 0, '1 ', 1, 0.0000, 0.0000, 0.0000, 0.1520, 0.0000, 0.0000
9005, 9055, 0, '1 ', 1, 0.0000, 0.0000, 0.0000, 0.8000, 0.0000, 0.0000
9007, 9071, 0, '1 ', 3, 0.0, 0.0, 0.4412, 2.9668, 0.0000, 0.0000
9007, 9072, 0, '1 ', 3, 0.0, 0.0, 0.30792, 2.0570, 0.0000, 0.0000
9021, 9022, 0, '1 ', 3, 0.0, 0.0, 0.44364, 2.8152, 0.0000, 0.0000
9023, 9025, 0, '1 ', 3, 0.0, 0.0, 0.66688, 3.9440, 0.0000, 0.0000
9023, 9026, 0, '1 ', 3, 0.0, 0.0, 0.6113, 3.6152, 0.0000, 0.0000
10065, 9051, 0, '1 ', 3, 0.0, 0.0, 0.0000, 0.00011, 0.0000, 0.0000
9053, 9533, 0, '1 ', 3, 0.0, 0.0, 0.0000, 0.7500, 0.0000, 0.0000
10066, 9053, 0, '1 ', 3, 0.0, 0.0, 0.0000, 0.00011, 0.0000, 0.0000
10067, 9054, 0, '1 ', 3, 0.0, 0.0, 0.0000, 0.00011, 0.0000, 0.0000
10068, 9055, 0, '1 ', 3, 0.0, 0.0, 0.0000, 0.00011, 0.0000, 0.0000
33, 34, 0, '1 ', 1, 0.0000, 0.0000, 0.0000, 0.0630, 0.0000, 0.0000
41, 42, 0, '1 ', 1, 0.0000, 0.0000, 0.0000, 0.0290, 0.0000, 0.0000
119, 1190, 0, '1 ', 1, 0.0000, 0.0000, 0.0000, 0.0230, 0.0000, 0.0000
120, 1200, 0, '1 ', 1, 0.0000, 0.0000, 0.0000, 0.0230, 0.0000, 0.0000
126, 127, 0, '1 ', 1, 0.0000, 0.0000, 0.0000, 0.0400, 0.0000, 0.0000
126, 129, 0, '1 ', 1, 0.0000, 0.0000, 0.0000, 0.1100, 0.0000, 0.0000
126, 132, 0, '1 ', 1, 0.0000, 0.0000, 0.0198, 0.1688, 0.0000, 0.0000
126, 157, 0, '1 ', 1, 0.0000, 0.0000, 0.0050, 0.0500, 0.0000, 0.0000
126, 158, 0, '1 ', 1, 0.0000, 0.0000, 0.0077, 0.0538, 0.0000, 0.0000
126, 169, 0, '1 ', 1, 0.0000, 0.0000, 0.0165, 0.1157, 0.0000, 0.0000
133, 171, 0, '1 ', 1, 0.0000, 0.0000, 0.0002, 0.0101, 0.0000, 0.0000
190, 229, 0, '1 ', 1, 0.0000, 0.0000, 0.0000, 0.0626, 0.0000, 0.0000
190, 240, 0, '1 ', 1, 0.0000, 0.0000, 0.0000, 0.0275, 0.0000, 0.0000
198, 202, 0, '1 ', 3, 0.0, 0.0, 0.3320, 0.6880, 0.0000, 0.0000
217, 219, 0, '1 ', 1, 0.0000, 0.0000, 0.0005, 0.0177, 0.0000, 0.0000
226, 231, 0, '1 ', 1, 0.0000, 0.0000, 0.0005, 0.0212, 0.0000, 0.0000
228, 231, 0, '1 ', 1, 0.0000, 0.0000, 0.0026, 0.0917, 0.0000, 0.0000
231, 232, 0, '1 ', 1, 0.0000, 0.0000, 0.0002, 0.0069, 0.0000, 0.0000
232, 233, 0, '1 ', 1, 0.0000, 0.0000, 0.0017, 0.0485, 0.0000, 0.0000
234, 237, 0, '1 ', 1, 0.0000, 0.0000, 0.0006, 0.0272, 0.0000, 0.0000
242, 245, 0, '1 ', 1, 0.0000, 0.0000, 0.0082, 0.0851, 0.0000, 0.0000
242, 247, 0, '1 ', 1, 0.0000, 0.0000, 0.0112, 0.0723, 0.0000, 0.0000
0 /End of Zero sequence Transformer data, Begin Zero sequence Switched shunt data
0 /END OF ZERO SEQ. SWITCHED SHUNT DATA, BEGIN ZERO SEQ. FIXED SHUNT DATA
0 /END OF ZERO SEQ. FIXED SHUNT DATA
